17
	Energy:       2.8297459
C         -5.34581        0.89801       -0.01139
C         -4.12473        1.80951       -0.06462
H         -5.39168        0.37268        0.96664
H         -5.30889        0.14683       -0.82918
H         -6.26727        1.50656       -0.13000
C         -2.81802        1.01392        0.04132
H         -4.19194        2.54281        0.76898
H         -4.13353        2.36499       -1.02859
C         -1.60919        1.95555        0.02646
H         -2.75479        0.31111       -0.81969
H         -2.81007        0.42249        0.98464
C         -0.29327        1.18398        0.04485
H         -1.65155        2.62278        0.91602
H         -1.63278        2.58411       -0.89074
H         -0.22469        0.54711        0.95222
H          0.55549        1.89986        0.04585
H         -0.21298        0.54321       -0.85955
